Version 4
SHEET 1 1256 680
WIRE 1088 -208 720 -208
WIRE 1200 -208 1088 -208
WIRE 720 -160 720 -208
WIRE 1200 -160 1200 -208
WIRE 640 -112 576 -112
WIRE 928 -112 800 -112
WIRE -176 -80 -624 -80
WIRE 352 -80 -176 -80
WIRE 640 -64 448 -64
WIRE 352 -48 288 -48
WIRE -624 0 -624 -80
WIRE 1200 16 1200 -80
WIRE 720 32 720 -16
WIRE 1088 32 1088 -208
WIRE 1088 32 720 32
WIRE 288 128 288 -48
WIRE -224 160 -512 160
WIRE -208 160 -224 160
WIRE -160 160 -208 160
WIRE 112 160 -64 160
WIRE 288 176 288 128
WIRE 288 176 208 176
WIRE 928 176 928 -112
WIRE -512 192 -512 160
WIRE 112 192 32 192
WIRE 1040 256 448 256
WIRE -224 304 -368 304
WIRE 32 304 32 192
WIRE 32 304 -224 304
WIRE 928 304 928 176
WIRE 992 304 928 304
WIRE 1152 304 1104 304
WIRE -368 384 -368 304
WIRE 32 384 32 304
WIRE 112 384 32 384
WIRE 288 400 208 400
WIRE 448 400 448 256
WIRE 448 400 288 400
WIRE 576 400 576 -112
WIRE 912 400 576 400
WIRE 1152 400 1152 304
WIRE 1152 400 912 400
WIRE -208 416 -208 160
WIRE 112 416 -208 416
WIRE -624 544 -624 80
WIRE -512 544 -512 272
WIRE -512 544 -624 544
WIRE -368 544 -368 464
WIRE -368 544 -512 544
WIRE -512 608 -512 544
FLAG 1200 16 0
FLAG 288 128 A
FLAG 912 400 data
FLAG -176 -80 ck
FLAG -224 160 rw
FLAG -224 304 sel
FLAG -512 608 0
FLAG 288 400 B
FLAG 928 176 Q
SYMBOL eea_symb\\and2 208 160 R0
SYMATTR InstName U1
SYMBOL eea_symb\\and2 208 384 R0
SYMATTR InstName U2
SYMBOL eea_symb\\and2 448 -80 R0
SYMATTR InstName U3
SYMBOL eea_symb\\not -128 112 R0
SYMATTR InstName U4
SYMBOL Digital\\dflop 720 -160 R0
SYMATTR InstName A1
SYMBOL voltage 1200 -176 R0
WINDOW 123 0 0 Left 0
WINDOW 39 0 0 Left 0
SYMATTR InstName V1
SYMATTR Value 5
SYMBOL voltage -624 -16 R0
WINDOW 123 0 0 Left 0
WINDOW 39 0 0 Left 0
SYMATTR InstName V2
SYMATTR Value PULSE(0 5 10m 1n 1n 10m 20m)
SYMBOL voltage -512 176 R0
WINDOW 123 0 0 Left 0
WINDOW 39 0 0 Left 0
SYMATTR InstName V3
SYMATTR Value PULSE(0 5 45m 1n 1n 45m 90m)
SYMBOL voltage -368 368 R0
WINDOW 123 0 0 Left 0
WINDOW 39 0 0 Left 0
SYMATTR InstName V4
SYMATTR Value PULSE(0 5 20m 1n 1n 20m 40m 2)
SYMBOL eea_symb\\Buf3 1040 304 R0
SYMATTR InstName U5
TEXT 144 -224 Left 2 !.inc eea.lib
TEXT 144 -176 Left 2 !.tran 0 90m 0 1u
