Version 4
SHEET 1 1044 792
WIRE 240 -560 160 -560
WIRE 1024 -560 320 -560
WIRE 400 -512 336 -512
WIRE 1024 -512 1024 -560
WIRE 1024 -512 480 -512
WIRE 576 -448 512 -448
WIRE 1024 -448 1024 -512
WIRE 1024 -448 656 -448
WIRE 784 -336 688 -336
WIRE 1024 -336 1024 -448
WIRE 1024 -336 864 -336
WIRE 160 -176 160 -560
WIRE 336 -176 336 -512
WIRE 512 -176 512 -448
WIRE 688 -176 688 -336
WIRE 1024 -176 1024 -336
WIRE -752 -128 -992 -128
WIRE -624 -128 -752 -128
WIRE -352 -128 -624 -128
WIRE -112 -128 -256 -128
WIRE 784 -112 -16 -112
WIRE -112 -96 -208 -96
WIRE -752 -64 -816 -64
WIRE -688 -64 -752 -64
WIRE -480 -64 -688 -64
WIRE -208 -64 -208 -96
WIRE -208 -64 -384 -64
WIRE -992 -16 -992 -128
WIRE -624 0 -624 -128
WIRE -352 0 -624 0
WIRE -112 0 -256 0
WIRE 608 16 -16 16
WIRE -112 32 -208 32
WIRE -816 64 -816 -64
WIRE -688 64 -688 -64
WIRE -208 64 -208 32
WIRE -208 64 -688 64
WIRE -624 112 -624 0
WIRE -112 112 -624 112
WIRE 432 128 -16 128
WIRE -688 144 -688 64
WIRE -480 144 -688 144
WIRE -112 144 -384 144
WIRE -992 192 -992 64
WIRE -896 192 -992 192
WIRE -816 192 -816 144
WIRE -816 192 -896 192
WIRE 784 192 784 -112
WIRE -896 224 -896 192
WIRE -624 240 -624 112
WIRE -112 240 -624 240
WIRE 256 256 -16 256
WIRE -688 272 -688 144
WIRE -112 272 -688 272
WIRE 432 288 432 128
WIRE 608 336 608 16
WIRE 256 352 256 256
WIRE 160 400 160 -176
WIRE 336 400 336 -176
WIRE 512 400 512 -176
WIRE 688 400 688 -176
WIRE 256 448 256 352
WIRE 256 448 208 448
WIRE 432 448 432 288
WIRE 432 448 384 448
WIRE 608 448 608 336
WIRE 608 448 560 448
WIRE 784 448 784 192
WIRE 784 448 736 448
WIRE 160 640 160 512
WIRE 336 640 336 512
WIRE 336 640 160 640
WIRE 448 640 336 640
WIRE 512 640 512 512
WIRE 512 640 448 640
WIRE 688 640 688 512
WIRE 688 640 512 640
WIRE 448 704 448 640
FLAG 448 704 Out
FLAG 160 -176 I3
FLAG 336 -176 I2
FLAG 512 -176 I1
FLAG 688 -176 I0
FLAG -752 -128 S1
FLAG -752 -64 S0
FLAG 1024 -176 0
FLAG -896 224 0
FLAG 784 192 G0
FLAG 608 336 G1
FLAG 432 288 G2
FLAG 256 352 G3
SYMBOL eea_symb\\Buf3 160 448 R90
SYMATTR InstName U1
SYMBOL eea_symb\\Buf3 336 448 R90
SYMATTR InstName U2
SYMBOL eea_symb\\Buf3 512 448 R90
SYMATTR InstName U3
SYMBOL eea_symb\\Buf3 688 448 R90
SYMATTR InstName U4
SYMBOL eea_symb\\and2 -16 -128 R0
SYMATTR InstName U5
SYMBOL eea_symb\\and2 -16 0 R0
SYMATTR InstName U6
SYMBOL eea_symb\\and2 -16 112 R0
SYMATTR InstName U7
SYMBOL eea_symb\\and2 -16 240 R0
SYMATTR InstName U8
SYMBOL eea_symb\\not -320 -176 R0
SYMATTR InstName U9
SYMBOL eea_symb\\not -448 -112 R0
SYMATTR InstName U10
SYMBOL eea_symb\\not -448 96 R0
SYMATTR InstName U12
SYMBOL eea_symb\\not -320 -48 R0
SYMATTR InstName U11
SYMBOL voltage 224 -560 R270
WINDOW 0 32 56 VTop 2
WINDOW 3 -32 56 VBottom 2
WINDOW 123 0 0 Left 0
WINDOW 39 0 0 Left 0
SYMATTR InstName V1
SYMATTR Value 4
SYMBOL voltage 384 -512 R270
WINDOW 0 32 56 VTop 2
WINDOW 3 -32 56 VBottom 2
WINDOW 123 0 0 Left 0
WINDOW 39 0 0 Left 0
SYMATTR InstName V2
SYMATTR Value 3
SYMBOL voltage 560 -448 R270
WINDOW 0 32 56 VTop 2
WINDOW 3 -32 56 VBottom 2
WINDOW 123 0 0 Left 0
WINDOW 39 0 0 Left 0
SYMATTR InstName V3
SYMATTR Value 2
SYMBOL voltage 768 -336 R270
WINDOW 0 32 56 VTop 2
WINDOW 3 -32 56 VBottom 2
WINDOW 123 0 0 Left 0
WINDOW 39 0 0 Left 0
SYMATTR InstName V4
SYMATTR Value 1
SYMBOL voltage -992 -32 R0
WINDOW 123 0 0 Left 0
WINDOW 39 0 0 Left 0
SYMATTR InstName V5
SYMATTR Value 5
SYMBOL voltage -816 48 R0
WINDOW 123 0 0 Left 0
WINDOW 39 0 0 Left 0
SYMATTR InstName V6
SYMATTR Value 5
TEXT -536 -248 Left 2 !.tran 0 2 0
TEXT -536 -296 Left 2 !.inc eea.lib
