Version 4
SHEET 1 1072 1332
WIRE 288 -384 240 -384
WIRE 288 -336 288 -384
WIRE 288 -176 288 -256
WIRE 400 -80 -496 -80
WIRE -496 16 -496 -80
WIRE -400 16 -496 16
WIRE 240 16 240 -384
WIRE 240 16 32 16
WIRE -1024 32 -1376 32
WIRE -160 32 -304 32
WIRE -864 48 -944 48
WIRE -624 48 -864 48
WIRE -400 48 -624 48
WIRE -1024 64 -1344 64
WIRE 240 96 240 16
WIRE -160 128 -160 32
WIRE -96 128 -160 128
WIRE -864 144 -864 48
WIRE 160 144 -32 144
WIRE 368 144 320 144
WIRE 432 144 368 144
WIRE 464 144 432 144
WIRE -96 160 -160 160
WIRE 160 192 96 192
WIRE 400 192 400 -80
WIRE 400 192 336 192
WIRE 816 192 400 192
WIRE -1488 256 -1952 256
WIRE -1456 256 -1488 256
WIRE -1376 256 -1376 32
WIRE -1376 256 -1456 256
WIRE -1184 256 -1376 256
WIRE -864 272 -864 240
WIRE -720 272 -864 272
WIRE -672 272 -720 272
WIRE -400 272 -576 272
WIRE -160 288 -160 160
WIRE -160 288 -304 288
WIRE -400 304 -496 304
WIRE 32 304 32 16
WIRE 240 304 240 240
WIRE 240 304 32 304
WIRE -1488 320 -1488 256
WIRE -928 320 -1392 320
WIRE -496 352 -496 304
WIRE 368 352 368 144
WIRE 368 352 -496 352
WIRE 816 384 816 192
WIRE 912 384 816 384
WIRE -928 400 -928 320
WIRE 912 400 -928 400
WIRE 1040 400 976 400
WIRE 912 416 816 416
WIRE -1952 432 -1952 256
WIRE 912 432 832 432
WIRE -1520 448 -1792 448
WIRE -1472 448 -1520 448
WIRE -1344 448 -1344 64
WIRE -1344 448 -1472 448
WIRE 816 448 816 416
WIRE 816 448 -1344 448
WIRE 464 528 464 144
WIRE 464 528 -800 528
WIRE -1520 544 -1520 448
WIRE -1488 544 -1520 544
WIRE -1216 544 -1392 544
WIRE 32 608 32 304
WIRE 928 608 928 448
WIRE 928 608 32 608
WIRE -1792 640 -1792 448
WIRE 400 672 -496 672
WIRE -496 768 -496 672
WIRE -400 768 -496 768
WIRE -160 784 -304 784
WIRE -800 800 -800 528
WIRE -736 800 -800 800
WIRE -624 800 -672 800
WIRE -400 800 -624 800
WIRE 32 800 32 608
WIRE 240 800 32 800
WIRE -1184 816 -1184 256
WIRE -736 816 -1184 816
WIRE -1216 832 -1216 544
WIRE -736 832 -1216 832
WIRE 240 848 240 800
WIRE -160 880 -160 784
WIRE -96 880 -160 880
WIRE 160 896 -32 896
WIRE 368 896 320 896
WIRE 512 896 368 896
WIRE 832 896 832 432
WIRE 832 896 512 896
WIRE -96 912 -160 912
WIRE -1360 944 -1600 944
WIRE 96 944 96 192
WIRE 96 944 -1360 944
WIRE 160 944 96 944
WIRE 400 944 400 672
WIRE 400 944 336 944
WIRE -720 992 -720 848
WIRE 32 992 32 800
WIRE 32 992 -720 992
WIRE -1600 1024 -1600 944
WIRE -720 1024 -928 1024
WIRE -672 1024 -720 1024
WIRE -400 1024 -576 1024
WIRE 32 1024 32 992
WIRE 240 1024 240 992
WIRE 240 1024 32 1024
WIRE -160 1040 -160 912
WIRE -160 1040 -304 1040
WIRE -400 1056 -496 1056
WIRE -928 1088 -928 1024
WIRE -496 1104 -496 1056
WIRE 368 1104 368 896
WIRE 368 1104 -496 1104
WIRE -1952 1280 -1952 512
WIRE -1792 1280 -1792 720
WIRE -1792 1280 -1952 1280
WIRE -1600 1280 -1600 1104
WIRE -1600 1280 -1792 1280
WIRE -928 1280 -928 1168
WIRE -928 1280 -1600 1280
WIRE -928 1312 -928 1280
FLAG -720 272 K1
FLAG -624 48 J1
FLAG -720 1024 K2
FLAG -624 800 J2
FLAG 512 896 Y2
FLAG -1456 256 X1
FLAG -1472 448 X2
FLAG -928 1312 0
FLAG 1040 400 Z
FLAG -1360 944 Ck
FLAG 288 -176 0
FLAG 432 144 Y1
SYMBOL Digital\\dflop 240 96 R0
SYMATTR InstName A1
SYMBOL eea_symb\\or2 -64 80 R0
SYMATTR InstName U1
SYMBOL eea_symb\\and2 -304 16 R0
SYMATTR InstName U2
SYMBOL eea_symb\\and2 -304 272 R0
SYMATTR InstName U3
SYMBOL eea_symb\\not -640 224 R0
SYMATTR InstName U4
SYMBOL Digital\\dflop 240 848 R0
SYMATTR InstName A2
SYMBOL eea_symb\\or2 -64 832 R0
SYMATTR InstName U5
SYMBOL eea_symb\\and2 -304 768 R0
SYMATTR InstName U6
SYMBOL eea_symb\\and2 -304 1024 R0
SYMATTR InstName U7
SYMBOL eea_symb\\not -640 976 R0
SYMATTR InstName U8
SYMBOL eea_symb\\nor2 -992 -16 R0
SYMATTR InstName U9
SYMBOL Digital\\and -704 752 R0
SYMATTR InstName A3
SYMBOL eea_symb\\not -1456 496 R0
SYMATTR InstName U10
SYMBOL eea_symb\\not -1456 272 R0
SYMATTR InstName U11
SYMBOL eea_symb\\not -816 176 R90
SYMATTR InstName U12
SYMBOL voltage -928 1072 R0
WINDOW 123 0 0 Left 0
WINDOW 39 0 0 Left 0
SYMATTR InstName V1
SYMATTR Value 5
SYMBOL voltage -1600 1008 R0
WINDOW 123 0 0 Left 0
WINDOW 39 0 0 Left 0
SYMATTR InstName Clock
SYMATTR Value PULSE(0 5 0 1n 1n 10m 20m)
SYMBOL Digital\\and 944 352 R0
SYMATTR InstName A4
SYMBOL voltage -1792 624 R0
SYMATTR InstName X2
SYMATTR Value 0
SYMBOL voltage -1952 416 R0
WINDOW 123 0 0 Left 0
WINDOW 39 0 0 Left 0
SYMATTR InstName X1
SYMATTR Value PULSE(0 5 15m 1n 1n 40m 80m)
SYMBOL voltage 288 -352 R0
WINDOW 123 0 0 Left 0
WINDOW 39 0 0 Left 0
SYMATTR InstName V2
SYMATTR Value 5
TEXT -1216 -488 Left 2 !.inc eea.lib
TEXT -1216 -376 Left 2 !.tran 0 100m 0 1u
