Version 4
SHEET 1 880 680
WIRE 448 -48 336 -48
WIRE 576 -48 448 -48
WIRE 336 -16 336 -48
WIRE 576 0 576 -48
WIRE 336 80 336 64
WIRE 336 80 272 80
WIRE 336 96 336 80
WIRE 160 144 64 144
WIRE 272 144 160 144
WIRE 64 192 64 144
WIRE 64 352 64 272
WIRE 336 352 336 192
WIRE 336 352 64 352
WIRE 576 352 576 80
WIRE 576 352 336 352
WIRE 336 384 336 352
FLAG 336 384 0
FLAG 448 -48 Vdd
FLAG 160 144 Vin
FLAG 272 80 VO
SYMBOL voltage 64 176 R0
WINDOW 123 0 0 Left 0
WINDOW 39 0 0 Left 0
SYMATTR InstName Vin
SYMATTR Value SINE(1.25 0.1 2k)
SYMBOL voltage 576 -16 R0
WINDOW 123 0 0 Left 0
WINDOW 39 0 0 Left 0
SYMATTR InstName Vdd
SYMATTR Value 2.5
SYMBOL res 320 -32 R0
SYMATTR InstName RL
SYMATTR Value 10k
SYMBOL eea_symb\\nmos12 288 96 R0
SYMATTR InstName M1
SYMATTR SpiceLine W 1u
TEXT 40 -80 Left 2 !.inc eea.lib
TEXT -112 16 Left 2 !;tran 0 3m 0
TEXT -120 48 Left 2 !.dc Vin 0 3 0.1
