Version 4
SHEET 1 940 1492
WIRE -416 -544 -736 -544
WIRE -16 -544 -336 -544
WIRE -736 -464 -736 -544
WIRE -528 -464 -736 -464
WIRE -208 -464 -448 -464
WIRE -736 -384 -736 -464
WIRE -608 -384 -736 -384
WIRE -432 -384 -528 -384
WIRE -208 -384 -208 -464
WIRE -16 -384 -16 -544
WIRE -736 -368 -736 -384
WIRE -432 -304 -432 -384
WIRE -304 -304 -432 -304
WIRE -208 -304 -208 -384
WIRE -112 -304 -208 -304
WIRE -16 -304 -16 -384
WIRE 80 -304 -16 -304
WIRE -304 -240 -304 -304
WIRE -112 -240 -112 -304
WIRE 80 -240 80 -304
WIRE -304 -224 -304 -240
WIRE -208 -80 -208 -304
WIRE 384 -80 -208 -80
WIRE -16 -64 -16 -304
WIRE 384 -64 -16 -64
WIRE 624 -48 448 -48
WIRE -16 32 -16 -64
WIRE 384 32 -16 32
WIRE -432 48 -432 -304
WIRE 384 48 -432 48
WIRE 560 64 448 64
WIRE -208 144 -208 -80
WIRE 384 144 -208 144
WIRE -432 160 -432 48
WIRE 384 160 -432 160
WIRE 624 160 624 -48
WIRE 688 160 624 160
WIRE 512 176 448 176
WIRE 560 176 560 64
WIRE 688 176 560 176
WIRE 512 192 512 176
WIRE 688 192 512 192
WIRE 880 192 752 192
WIRE -432 320 -432 160
WIRE 384 320 -432 320
WIRE -112 336 -112 -144
WIRE 384 336 -112 336
WIRE 80 352 80 -144
WIRE 384 352 80 352
WIRE 656 352 448 352
WIRE -432 432 -432 320
WIRE 384 432 -432 432
WIRE -208 448 -208 144
WIRE 384 448 -208 448
WIRE -16 464 -16 32
WIRE 384 464 -16 464
WIRE 624 464 448 464
WIRE 656 512 656 352
WIRE 688 512 656 512
WIRE 624 528 624 464
WIRE 688 528 624 528
WIRE -304 544 -304 -144
WIRE 384 544 -304 544
WIRE 688 544 624 544
WIRE -208 560 -208 448
WIRE 384 560 -208 560
WIRE 688 560 656 560
WIRE 880 560 752 560
WIRE 80 576 80 352
WIRE 384 576 80 576
WIRE 624 576 624 544
WIRE 624 576 448 576
WIRE -16 672 -16 464
WIRE 384 672 -16 672
WIRE -112 688 -112 336
WIRE 384 688 -112 688
WIRE -304 704 -304 544
WIRE 384 704 -304 704
WIRE 656 704 656 560
WIRE 656 704 448 704
WIRE -208 1040 -208 560
WIRE 288 1040 -208 1040
WIRE 560 1056 368 1056
WIRE -16 1072 -16 672
WIRE 288 1072 -16 1072
WIRE 880 1072 640 1072
WIRE -432 1088 -432 432
WIRE 560 1088 -432 1088
WIRE -16 1248 -16 1072
WIRE 272 1248 -16 1248
WIRE 544 1264 368 1264
WIRE -208 1280 -208 1040
WIRE 272 1280 -208 1280
WIRE 640 1280 608 1280
WIRE 544 1296 512 1296
WIRE 640 1328 640 1280
WIRE 672 1328 640 1328
WIRE -16 1344 -16 1248
WIRE 272 1344 -16 1344
WIRE 880 1344 736 1344
WIRE 512 1360 512 1296
WIRE 512 1360 368 1360
WIRE 672 1360 640 1360
WIRE -432 1376 -432 1088
WIRE 272 1376 -432 1376
WIRE -208 1440 -208 1280
WIRE 272 1440 -208 1440
WIRE 640 1456 640 1360
WIRE 640 1456 368 1456
WIRE -432 1472 -432 1376
WIRE 272 1472 -432 1472
FLAG 880 192 Co
FLAG 880 560 S
FLAG -432 -384 Ci
FLAG -208 -384 A
FLAG -16 -384 B
FLAG 880 1072 S2
FLAG 880 1344 Co2
FLAG -736 -368 0
SYMBOL Digital\\and 720 112 R0
SYMATTR InstName A1
SYMBOL Digital\\and 720 480 R0
SYMATTR InstName A2
SYMBOL Digital\\and 416 -128 R0
SYMATTR InstName A3
SYMBOL Digital\\and 416 -16 R0
SYMATTR InstName A4
SYMBOL Digital\\and 416 96 R0
SYMATTR InstName A5
SYMBOL Digital\\and 416 272 R0
SYMATTR InstName A6
SYMBOL Digital\\and 416 384 R0
SYMATTR InstName A7
SYMBOL Digital\\and 416 496 R0
SYMATTR InstName A8
SYMBOL Digital\\and 416 624 R0
SYMATTR InstName A9
SYMBOL eea_symb\\not 128 -208 R90
SYMATTR InstName U1
SYMBOL eea_symb\\not -64 -208 R90
SYMATTR InstName U2
SYMBOL eea_symb\\not -256 -208 R90
SYMATTR InstName U3
SYMBOL eea_symb\\and2 368 1248 R0
SYMATTR InstName U4
SYMBOL eea_symb\\and2 368 1344 R0
SYMATTR InstName U5
SYMBOL eea_symb\\and2 368 1440 R0
SYMATTR InstName U6
SYMBOL voltage -512 -384 R90
WINDOW 0 -32 56 VBottom 2
WINDOW 3 32 56 VTop 2
SYMATTR InstName V1
SYMATTR Value 0
SYMBOL voltage -432 -464 R90
WINDOW 0 -32 56 VBottom 2
WINDOW 3 32 56 VTop 2
SYMATTR InstName V2
SYMATTR Value 1
SYMBOL voltage -320 -544 R90
WINDOW 0 -32 56 VBottom 2
WINDOW 3 32 56 VTop 2
SYMATTR InstName V3
SYMATTR Value 1
SYMBOL eea_symb\\xor2 320 992 R0
SYMATTR InstName U7
SYMBOL eea_symb\\xor2 592 1008 R0
SYMATTR InstName U8
SYMBOL eea_symb\\or2 576 1216 R0
SYMATTR InstName U9
SYMBOL eea_symb\\or2 704 1280 R0
SYMATTR InstName U10
TEXT 336 -344 Left 2 !.inc eea.lib
TEXT 352 -272 Left 2 !.tran 0 2 0
