Version 4
SHEET 1 880 680
WIRE 272 32 176 32
WIRE 384 32 272 32
WIRE 384 64 384 32
WIRE 176 128 176 32
WIRE 64 176 -112 176
WIRE 112 176 64 176
WIRE -112 208 -112 176
WIRE -112 368 -112 288
WIRE 176 368 176 224
WIRE 176 368 -112 368
WIRE 384 368 384 144
WIRE 384 368 176 368
WIRE 176 400 176 368
FLAG 176 400 0
FLAG 64 176 Vgd
FLAG 272 32 Vsd
SYMBOL eea_symb\\pmos12 128 128 R0
SYMATTR InstName M1
SYMATTR SpiceLine W 1u
SYMBOL voltage -112 192 R0
SYMATTR InstName Vgd
SYMATTR Value 1
SYMBOL voltage 384 48 R0
WINDOW 123 0 0 Left 0
WINDOW 39 0 0 Left 0
SYMATTR InstName Vsd
SYMATTR Value 2.5
TEXT 376 -24 Left 2 !.inc eea.lib
TEXT -136 40 Left 2 !.dc Vsd 0 12 0.1 Vgd 0 5 1
