Version 4
SHEET 1 880 708
WIRE 464 96 224 96
WIRE 224 128 224 96
WIRE 160 176 80 176
WIRE 464 224 464 96
WIRE 80 320 80 176
WIRE 80 320 -128 320
WIRE 224 320 224 224
WIRE 272 320 224 320
WIRE -128 368 -128 320
WIRE 464 368 464 224
WIRE 224 416 224 320
WIRE 80 464 80 320
WIRE 160 464 80 464
WIRE -128 640 -128 448
WIRE 224 640 224 512
WIRE 224 640 -128 640
WIRE 464 640 464 448
WIRE 464 640 224 640
WIRE 224 688 224 640
FLAG 224 688 0
FLAG 272 320 Vo
FLAG -128 320 Vin
FLAG 464 224 Vdd
SYMBOL eea_symb\\pmos12 176 128 R0
SYMATTR InstName M1
SYMATTR SpiceLine W 8.7u
SYMBOL eea_symb\\nmos12 176 416 R0
SYMATTR InstName M2
SYMATTR SpiceLine W 3u
SYMBOL voltage -128 352 R0
SYMATTR InstName Vin
SYMATTR Value 1
SYMBOL voltage 464 352 R0
SYMATTR InstName Vdd
SYMATTR Value 2.5
TEXT -160 264 Left 2 !.dc Vin 0 2.5 0.01
TEXT -152 224 Left 2 !.inc eea.lib
