Version 4
SHEET 1 880 680
WIRE 448 112 224 112
WIRE 512 112 448 112
WIRE 224 144 224 112
WIRE 48 192 -48 192
WIRE 160 192 48 192
WIRE 512 192 512 112
WIRE -48 256 -48 192
WIRE 224 272 224 240
WIRE 256 272 224 272
WIRE 224 320 224 272
WIRE -48 464 -48 336
WIRE 224 464 224 400
WIRE 224 464 -48 464
WIRE 512 464 512 272
WIRE 512 464 224 464
WIRE 224 512 224 464
FLAG 224 512 0
FLAG 448 112 Vds
FLAG 48 192 Vgs
FLAG 256 272 Vo
SYMBOL eea_symb\\nmos12 176 144 R0
SYMATTR InstName M1
SYMATTR SpiceLine W 1u
SYMBOL res 208 304 R0
SYMATTR InstName R1
SYMATTR Value 3k
SYMBOL voltage -48 240 R0
WINDOW 123 0 0 Left 0
WINDOW 39 0 0 Left 0
SYMATTR InstName Vgs
SYMATTR Value SINE(1.25 200m 2k)
SYMBOL voltage 512 176 R0
SYMATTR InstName Vds
SYMATTR Value 2.5
TEXT -40 80 Left 2 !.inc eea.lib
TEXT 160 64 Left 2 !;tran 0 3m 0 10u startup
TEXT -120 120 Left 2 !.dc Vgs 0 9 0.1
