Version 4
SHEET 1 880 788
WIRE 224 32 -112 32
WIRE -112 96 -112 32
WIRE 224 96 224 32
WIRE 80 144 32 144
WIRE 160 144 80 144
WIRE 32 176 32 144
WIRE -112 336 -112 176
WIRE 32 336 32 256
WIRE 32 336 -112 336
WIRE 224 336 224 192
WIRE 224 336 32 336
WIRE 32 368 32 336
FLAG 32 368 0
FLAG -112 32 Vds
FLAG 80 144 Vgs
SYMBOL eea_symb\\nmos12 176 96 R0
SYMATTR InstName M1
SYMATTR SpiceLine W 1u
SYMATTR SpiceLine2 L 0.25µm
SYMBOL voltage -112 80 R0
WINDOW 123 0 0 Left 0
WINDOW 39 0 0 Left 0
SYMATTR InstName Vds
SYMATTR Value 2.5V
SYMBOL voltage 32 160 R0
WINDOW 123 0 0 Left 0
WINDOW 39 0 0 Left 0
SYMATTR InstName Vgs
SYMATTR Value 1V
TEXT -88 8 Left 2 !.dc Vds 0 2.5 0.01 Vgs 0 2 0.5 ;
TEXT -56 -56 Left 2 !.inc eea.lib
